code/testcases/IEEE24bus.RAW
0,   100.00,  32, 0, 1, 60.00     / PSS(R)E 32 RAW created by rawd32  WED, MAY 31 2017  16:11


     1,'1           ', 138.0000,3,   1,   1,   1,1.00000,   0.0000
     2,'2           ', 138.0000,2,   1,   1,   1,0.99782,   0.0104
     3,'3           ', 138.0000,1,   1,   1,   1,0.86370,  10.7559
     4,'4           ', 138.0000,1,   1,   1,   1,0.88701,  -0.4152
     5,'5           ', 138.0000,1,   1,   1,   1,0.92722,  -0.2294
     6,'6           ', 138.0000,1,   1,   1,   1,0.90795,   0.3918
     7,'7           ', 138.0000,2,   1,   1,   1,0.79623,  -0.5801
     8,'8           ', 230.0000,1,   1,   1,   1,0.80537,  -0.8684
     9,'9           ', 138.0000,1,   1,   1,   1,0.83494,   4.9891
    10,'10          ', 138.0000,1,   1,   1,   1,0.88170,   3.7237
    11,'11          ', 230.0000,1,   1,   1,   1,0.83607,  12.6406
    12,'12          ', 230.0000,1,   1,   1,   1,0.83976,  11.7835
    13,'13          ', 230.0000,2,   1,   1,   1,0.83693,  15.4506
    14,'14          ', 230.0000,2,   1,   1,   1,0.83642,  18.7579
    15,'15          ', 230.0000,2,   1,   1,   1,0.88521,  33.2130
    16,'16          ', 230.0000,2,   1,   1,   1,0.86215,  27.0843
    17,'17          ', 230.0000,1,   1,   1,   1,0.89574,  32.0611
    18,'18          ', 230.0000,2,   1,   1,   1,0.90106,  33.8993
    19,'19          ', 230.0000,1,   1,   1,   1,0.85183,  23.8041
    20,'20          ', 230.0000,1,   1,   1,   1,0.84935,  22.3313
    21,'21          ', 230.0000,2,   1,   1,   1,0.91125,  35.6580
    22,'22          ', 230.0000,2,   1,   1,   1,1.00000,  37.5021
    23,'23          ', 230.0000,2,   1,   1,   1,0.84971,  22.0795
    24,'24          ', 230.0000,1,   1,   1,   1,0.85497,  24.8131
 0 /End of Bus data, Begin Load data
     2,'1 ',1,   1,   1,    97.000,    20.000,     0.000,     0.000,     0.000,     0.000,   1,1
     3,'1 ',1,   1,   1,    90.000,    19.000,     0.000,     0.000,     0.000,     0.000,   1,1
     4,'1 ',1,   1,   1,    74.000,    15.000,     0.000,     0.000,     0.000,     0.000,   1,1
     5,'1 ',1,   1,   1,    71.000,    14.000,     0.000,     0.000,     0.000,     0.000,   1,1
     6,'1 ',1,   1,   1,    68.000,    14.000,     0.000,     0.000,     0.000,     0.000,   1,1
     7,'1 ',1,   1,   1,    62.000,    13.000,     0.000,     0.000,     0.000,     0.000,   1,1
     8,'1 ',1,   1,   1,    85.000,    18.000,     0.000,     0.000,     0.000,     0.000,   1,1
     9,'1 ',1,   1,   1,   175.000,    36.000,     0.000,     0.000,     0.000,     0.000,   1,1
    10,'1 ',1,   1,   1,   100.000,    23.000,     0.000,     0.000,     0.000,     0.000,   1,1
    13,'1 ',1,   1,   1,   130.000,    27.000,     0.000,     0.000,     0.000,     0.000,   1,1
    14,'1 ',1,   1,   1,    92.000,    20.000,     0.000,     0.000,     0.000,     0.000,   1,1
    15,'1 ',1,   1,   1,   158.000,    32.000,     0.000,     0.000,     0.000,     0.000,   1,1
    16,'1 ',1,   1,   1,   100.000,    20.000,     0.000,     0.000,     0.000,     0.000,   1,1
    18,'1 ',1,   1,   1,   162.000,    34.000,     0.000,     0.000,     0.000,     0.000,   1,1
    19,'1 ',1,   1,   1,    90.000,    18.000,     0.000,     0.000,     0.000,     0.000,   1,1
    20,'1 ',1,   1,   1,    65.000,    13.000,     0.000,     0.000,     0.000,     0.000,   1,1
 0 /End of Load data, Begin Fixed shunt data
 0 /End of Fixed shunt data, Begin Generator data
     1,'1 ',    35.930,   180.489,  9900.000, -9900.000,1.00000,     0,   100.000, 0.00000E+0, 1.00000E+0, 0.00000E+0, 0.00000E+0,1.00000,1,  100.0,  1000.000,     0.000,   1,1.0000
     2,'1 ',    67.000,     0.000,     0.000,     0.000,1.00000,     0,   100.000, 0.00000E+0, 1.00000E+0, 0.00000E+0, 0.00000E+0,1.00000,1,  100.0,  1000.000,     0.000,   1,1.0000
     7,'1 ',    64.000,     0.000,     0.000,     0.000,1.00000,     0,   100.000, 0.00000E+0, 1.00000E+0, 0.00000E+0, 0.00000E+0,1.00000,1,  100.0,  1000.000,     0.000,   1,1.0000
    13,'1 ',   200.000,     0.000,     0.000,     0.000,1.00000,     0,   100.000, 0.00000E+0, 1.00000E+0, 0.00000E+0, 0.00000E+0,1.00000,1,  100.0,  1000.000,     0.000,   1,1.0000
    14,'1 ',     0.000,     0.000,     0.000,     0.000,1.00000,     0,   100.000, 0.00000E+0, 1.00000E+0, 0.00000E+0, 0.00000E+0,1.00000,1,  100.0,  1000.000,     0.000,   1,1.0000
    15,'1 ',   274.000,     0.000,     0.000,     0.000,1.00000,     0,   100.000, 0.00000E+0, 1.00000E+0, 0.00000E+0, 0.00000E+0,1.00000,1,  100.0,  1000.000,     0.000,   1,1.0000
    16,'1 ',   245.000,     0.000,     0.000,     0.000,1.00000,     0,   100.000, 0.00000E+0, 1.00000E+0, 0.00000E+0, 0.00000E+0,1.00000,1,  100.0,  1000.000,     0.000,   1,1.0000
    18,'1 ',   144.000,     0.000,     0.000,     0.000,1.00000,     0,   100.000, 0.00000E+0, 1.00000E+0, 0.00000E+0, 0.00000E+0,1.00000,1,  100.0,  1000.000,     0.000,   1,1.0000
    21,'1 ',   294.000,     0.000,     0.000,     0.000,1.00000,     0,   100.000, 0.00000E+0, 1.00000E+0, 0.00000E+0, 0.00000E+0,1.00000,1,  100.0,  1000.000,     0.000,   1,1.0000
    22,'1 ',   150.000,   199.456,  9900.000, -9900.000,1.00000,     0,   100.000, 0.00000E+0, 1.00000E+0, 0.00000E+0, 0.00000E+0,1.00000,1,  100.0,  1000.000,     0.000,   1,1.0000
    23,'1 ',   200.000,     0.000,     0.000,     0.000,1.00000,     0,   100.000, 0.00000E+0, 1.00000E+0, 0.00000E+0, 0.00000E+0,1.00000,1,  100.0,  1000.000,     0.000,   1,1.0000
 0 /End of Generator data, Begin Branch data
     1,      2,'1 ', 7.00000E-4, 1.23000E-3,   0.00065,  175.00,    0.00,    0.00,  0.00000,  0.00000,  0.00000,  0.00000,1,1,   0.00,   1,1.0000
     1,      3,'1 ', 5.41900E-2, 2.11140E-1,   0.06130,  175.00,    0.00,    0.00,  0.00000,  0.00000,  0.00000,  0.00000,1,2,   0.00,   1,1.0000
     1,      5,'1 ', 2.24300E-2, 8.49000E-2,   0.02440,  175.00,    0.00,    0.00,  0.00000,  0.00000,  0.00000,  0.00000,1,1,   0.00,   1,1.0000
     2,      4,'1 ', 3.36100E-2, 1.27300E-1,   0.03660,  175.00,    0.00,    0.00,  0.00000,  0.00000,  0.00000,  0.00000,1,1,   0.00,   1,1.0000
     2,      6,'1 ', 5.06400E-2, 1.92010E-1,   0.05570,  175.00,    0.00,    0.00,  0.00000,  0.00000,  0.00000,  0.00000,1,1,   0.00,   1,1.0000
     3,      9,'1 ', 3.14800E-2, 1.19210E-1,   0.03430,  175.00,    0.00,    0.00,  0.00000,  0.00000,  0.00000,  0.00000,1,1,   0.00,   1,1.0000
     4,      9,'1 ', 2.69200E-2, 1.07790E-1,   0.02790,  175.00,    0.00,    0.00,  0.00000,  0.00000,  0.00000,  0.00000,1,1,   0.00,   1,1.0000
     6,     10,'1 ', 2.26200E-2, 3.33300E-2,   0.13029,  175.00,    0.00,    0.00,  0.00000,  0.00000,  0.00000,  0.00000,1,2,   0.00,   1,1.0000
     7,      8,'1 ', 1.61400E-2, 6.10300E-2,   0.01790,  175.00,    0.00,    0.00,  0.00000,  0.00000,  0.00000,  0.00000,1,1,   0.00,   1,1.0000
     8,      9,'1 ', 4.23400E-2, 1.64820E-1,   0.04780,  175.00,    0.00,    0.00,  0.00000,  0.00000,  0.00000,  0.00000,1,1,   0.00,   1,1.0000
     8,     10,'1 ', 4.23400E-2, 1.64820E-1,   0.04780,  175.00,    0.00,    0.00,  0.00000,  0.00000,  0.00000,  0.00000,1,1,   0.00,   1,1.0000
    11,     13,'1 ', 5.83000E-3, 4.74600E-2,   0.09590,  500.00,    0.00,    0.00,  0.00000,  0.00000,  0.00000,  0.00000,1,1,   0.00,   1,1.0000
    11,     14,'1 ', 5.13000E-3, 4.17200E-2,   0.08430,  500.00,    0.00,    0.00,  0.00000,  0.00000,  0.00000,  0.00000,1,1,   0.00,   1,1.0000
    12,     13,'1 ', 5.83000E-3, 4.76000E-2,   0.09590,  500.00,    0.00,    0.00,  0.00000,  0.00000,  0.00000,  0.00000,1,1,   0.00,   1,1.0000
    12,     23,'1 ', 1.22400E-2, 9.64400E-2,   0.19840,  500.00,    0.00,    0.00,  0.00000,  0.00000,  0.00000,  0.00000,1,1,   0.00,   1,1.0000
    13,     23,'1 ', 1.06000E-2, 8.64300E-2,   0.17520,  500.00,    0.00,    0.00,  0.00000,  0.00000,  0.00000,  0.00000,1,2,   0.00,   1,1.0000
    14,     16,'1 ', 4.77000E-3, 3.88400E-2,   0.07850,  500.00,    0.00,    0.00,  0.00000,  0.00000,  0.00000,  0.00000,1,1,   0.00,   1,1.0000
    15,     16,'1 ', 2.12000E-3, 1.72690E-1,   0.03490,  500.00,    0.00,    0.00,  0.00000,  0.00000,  0.00000,  0.00000,1,2,   0.00,   1,1.0000
    15,     21,'1 ', 6.07000E-3, 4.89900E-2,   0.10060,  500.00,    0.00,    0.00,  0.00000,  0.00000,  0.00000,  0.00000,1,1,   0.00,   1,1.0000
    15,     21,'2 ', 6.07000E-3, 4.89900E-2,   0.10060,  500.00,    0.00,    0.00,  0.00000,  0.00000,  0.00000,  0.00000,1,2,   0.00,   1,1.0000
    15,     24,'1 ', 6.42000E-3, 5.18700E-2,   0.10660,  500.00,    0.00,    0.00,  0.00000,  0.00000,  0.00000,  0.00000,1,1,   0.00,   1,1.0000
    16,     17,'1 ', 3.18000E-3, 2.59000E-2,   0.05230,  500.00,    0.00,    0.00,  0.00000,  0.00000,  0.00000,  0.00000,1,1,   0.00,   1,1.0000
    16,     19,'1 ', 2.83000E-3, 2.30200E-2,   0.04650,  500.00,    0.00,    0.00,  0.00000,  0.00000,  0.00000,  0.00000,1,1,   0.00,   1,1.0000
    17,     18,'1 ', 1.77000E-3, 1.43900E-2,   0.02910,  500.00,    0.00,    0.00,  0.00000,  0.00000,  0.00000,  0.00000,1,1,   0.00,   1,1.0000
    17,     22,'1 ', 1.22500E-2, 1.05270E-1,   0.21160,  500.00,    0.00,    0.00,  0.00000,  0.00000,  0.00000,  0.00000,1,1,   0.00,   1,1.0000
    18,     21,'1 ', 3.31000E-3, 2.59500E-2,   0.05330,  500.00,    0.00,    0.00,  0.00000,  0.00000,  0.00000,  0.00000,1,1,   0.00,   1,1.0000
    18,     21,'2 ', 3.31000E-3, 2.59500E-2,   0.05330,  500.00,    0.00,    0.00,  0.00000,  0.00000,  0.00000,  0.00000,1,1,   0.00,   1,1.0000
    19,     20,'1 ', 5.05000E-3, 3.96400E-2,   0.08140,  500.00,    0.00,    0.00,  0.00000,  0.00000,  0.00000,  0.00000,1,1,   0.00,   1,1.0000
    19,     20,'2 ', 5.05000E-3, 3.96400E-2,   0.08140,  500.00,    0.00,    0.00,  0.00000,  0.00000,  0.00000,  0.00000,1,1,   0.00,   1,1.0000
    20,     23,'1 ', 2.76000E-3, 2.16300E-2,   0.04440,  500.00,    0.00,    0.00,  0.00000,  0.00000,  0.00000,  0.00000,1,1,   0.00,   1,1.0000
    20,     23,'2 ', 2.76000E-3, 2.16300E-2,   0.04440,  500.00,    0.00,    0.00,  0.00000,  0.00000,  0.00000,  0.00000,1,1,   0.00,   1,1.0000
    21,     22,'1 ', 8.29000E-3, 6.76900E-2,   0.13670,  500.00,    0.00,    0.00,  0.00000,  0.00000,  0.00000,  0.00000,1,1,   0.00,   1,1.0000
 0 /End of Branch data, Begin Transformer data
    24,     3,     0,'1 ',1,1,1, 0.00000E+0, 0.00000E+0,2,'                                        ',1,   1,1.0000
 2.30000E-3, 8.39000E-2,   100.00
1.00000, 230.000,   0.000,   400.00,     0.00,     0.00, 0,      0, 1.50000, 0.51000, 1.50000, 0.51000, 159, 0, 0.00000, 0.00000,  0.000
1.00000, 230.000
     5,    10,     0,'1 ',1,1,1, 0.00000E+0, 2.54000E-2,2,'                                        ',1,   1,1.0000
 2.33400E-2, 8.83700E-2,   100.00
1.00000, 230.000,   0.000,   175.00,     0.00,     0.00, 0,      0, 1.50000, 0.51000, 1.50000, 0.51000, 159, 0, 0.00000, 0.00000,  0.000
1.00000, 230.000
    11,     9,     0,'1 ',1,1,1, 0.00000E+0, 0.00000E+0,2,'                                        ',1,   1,1.0000
 2.30000E-3, 8.39000E-2,   100.00
1.00000, 230.000,   0.000,   400.00,     0.00,     0.00, 0,      0, 1.50000, 0.51000, 1.50000, 0.51000, 159, 0, 0.00000, 0.00000,  0.000
1.00000, 230.000
     9,    12,     0,'1 ',1,1,1, 0.00000E+0, 0.00000E+0,2,'                                        ',1,   1,1.0000
 2.30000E-3, 8.39000E-2,   100.00
1.00000, 230.000,   0.000,   400.00,     0.00,     0.00, 0,      0, 1.50000, 0.51000, 1.50000, 0.51000, 159, 0, 0.00000, 0.00000,  0.000
1.00000, 230.000
    11,    10,     0,'1 ',1,1,1, 0.00000E+0, 0.00000E+0,2,'                                        ',1,   1,1.0000
 2.30000E-3, 8.39000E-2,   100.00
1.00000, 230.000,   0.000,   400.00,     0.00,     0.00, 0,      0, 1.50000, 0.51000, 1.50000, 0.51000, 159, 0, 0.00000, 0.00000,  0.000
1.00000, 230.000
    12,    10,     0,'1 ',1,1,1, 0.00000E+0, 0.00000E+0,2,'                                        ',1,   1,1.0000
 2.30000E-3, 8.39000E-2,   100.00
1.00000, 230.000,   0.000,   400.00,     0.00,     0.00, 0,      0, 1.50000, 0.51000, 1.50000, 0.51000, 159, 0, 0.00000, 0.00000,  0.000
1.00000, 230.000
 0 /End of Transformer data, Begin Area interchange data
   1,     0,     0.000,     1.000,'1           '
 0 /End of Area interchange data, Begin Two-terminal dc line data
 0 /End of Two-terminal dc line data, Begin VSC dc line data
 0 /End of VSC dc line data, Begin Impedance correction table data
 0 /End of Impedance correction table data, Begin Multi-terminal dc line data
 0 /End of Multi-terminal dc line data, Begin Multi-section line data
 0 /End of Multi-section line data, Begin Zone data
   1,'1           '
 0 /End of Zone data, Begin Inter-area transfer data
 0 /End of Inter-area transfer data, Begin Owner data
   1,'1           '
 0 /End of Owner data, Begin FACTS device data
 0 /End of FACTS device data, Begin Switched shunt data
     1,0,0,1,1.00000,0.99000,     0,  100.0,'            ',  120.00, 1, 120.00
     6,0,0,1,1.00000,0.99000,     0,  100.0,'            ',  100.00, 1, 100.00
 0 /End of Switched shunt data, Begin GNE device data
 0 /End of GNE device data
Q
